6
Lattice="25.0 0.0 0.0 0.0 25.0 0.0 0.0 0.0 25.0" Properties=species:S:1:pos:R:3 pbc="T T T"
O        9.71123939       8.57227402       9.99998742
H       10.63097553       8.25918789      10.00000163
H        9.78924601       9.54572814      10.00000172
O        9.92197954      12.16610048      10.00001136
H        9.45366881      12.53129045       9.23033576
H        9.45365905      12.53127918      10.76968642
