6
Lattice="25.0 0.0 0.0 0.0 25.0 0.0 0.0 0.0 25.0" Properties=species:S:1:pos:R:3 pbc="T T T"
O        9.71123939       8.57227402       9.99998742
H       10.53444559       8.05940208      10.00003316
H        9.97005722       9.52031164       9.99940543
O        9.86344061      11.16781535      10.00000471
H        9.34435082      11.44927638      10.77289433
H        9.34433613      11.44889514       9.22698237
